LTspice 26.0.1 for Windows
Circuit: D:\Fathan\Tugas\UAS ELDAY-20251223T100743Z-3-001\UAS ELDAY\503544_UAS Elday_Muhammad Fathan Zahir\Task1\circuit2.net
Start Time: Wed Dec 24 11:14:14 2025
solver = Normal
Maximum thread count: 12
tnom = 27
temp = 27
method = trap
Direct Newton iteration succeeded in finding operating point.
Total elapsed time: 0.336 seconds.

Files loaded:
D:\Fathan\Tugas\UAS ELDAY-20251223T100743Z-3-001\UAS ELDAY\503544_UAS Elday_Muhammad Fathan Zahir\Task1\circuit2.net
C:\Users\Administrator\AppData\Local\LTspice\lib\cmp\standard.bjt
C:\Users\Administrator\AppData\Local\LTspice\lib\cmp\standard.mos

