LTspice 26.0.1 for Windows
Circuit: D:\503544_UAS Elday_Muhammad Fathan Zahir\Task1\Circuit1.net
Start Time: Tue Dec 23 13:03:36 2025
solver = Normal
Maximum thread count: 8
tnom = 27
temp = 27
method = trap
Direct Newton iteration succeeded in finding operating point.
Total elapsed time: 0.188 seconds.

Files loaded:
D:\503544_UAS Elday_Muhammad Fathan Zahir\Task1\Circuit1.net
C:\Users\lenovo\AppData\Local\LTspice\lib\cmp\standard.mos

